ieee33-dg-voltage-regulation/results/S2_HighDG_Powers.csv
Element, Terminal, P(kW), Q(kvar),  P_Normal, Q_Normal, P_Emergency, Q_Emergency
"Transformer.SUBTRANS"  ,   1,      1585.2,      1832.0,         0.0,         0.0,         0.0,         0.0
"Transformer.SUBTRANS"  ,   2,     -1567.4,     -1746.7
"Line.L1"               ,   1,      1567.4,      1746.7,         0.0,         0.0,         0.0,         0.0
"Line.L1"               ,   2,     -1564.3,     -1745.3
"Line.L2"               ,   1,      1384.1,      1575.7,         0.0,         0.0,         0.0,         0.0
"Line.L2"               ,   2,     -1371.0,     -1569.2
"Line.L3"               ,   1,       586.2,      1116.1,         0.0,         0.0,         0.0,         0.0
"Line.L3"               ,   2,      -582.6,     -1114.5
"Line.L4"               ,   1,       462.6,      1034.5,         0.0,         0.0,         0.0,         0.0
"Line.L4"               ,   2,      -459.6,     -1033.1
"Line.L5"               ,   1,       399.6,      1003.1,         0.0,         0.0,         0.0,         0.0
"Line.L5"               ,   2,      -393.7,      -998.2
"Line.L6"               ,   1,      -613.8,         8.4,         0.0,         0.0,         0.0,         0.0
"Line.L6"               ,   2,       614.3,        -7.1
"Line.L7"               ,   1,      -814.3,       -92.9,         0.0,         0.0,         0.0,         0.0
"Line.L7"               ,   2,       817.2,        93.7
"Line.L8"               ,   1,     -1017.2,      -193.7,         0.0,         0.0,         0.0,         0.0
"Line.L8"               ,   2,      1024.1,       198.4
"Line.L9"               ,   1,     -1084.1,      -218.4,         0.0,         0.0,         0.0,         0.0
"Line.L9"               ,   2,      1091.8,       223.8
"Line.L10"              ,   1,      -841.9,      -183.8,         0.0,         0.0,         0.0,         0.0
"Line.L10"              ,   2,       842.7,       183.9
"Line.L11"              ,   1,      -887.7,      -213.9,         0.0,         0.0,         0.0,         0.0
"Line.L11"              ,   2,       889.6,       214.3
"Line.L12"              ,   1,      -949.6,      -249.3,         0.0,         0.0,         0.0,         0.0
"Line.L12"              ,   2,       958.0,       255.8
"Line.L13"              ,   1,     -1018.0,      -290.8,         0.0,         0.0,         0.0,         0.0
"Line.L13"              ,   2,      1021.6,       295.3
"Line.L14"              ,   1,     -1141.6,      -375.3,         0.0,         0.0,         0.0,         0.0
"Line.L14"              ,   2,      1146.5,       379.5
"Line.L15"              ,   1,     -1206.5,      -389.5,         0.0,         0.0,         0.0,         0.0
"Line.L15"              ,   2,      1213.4,       394.3
"Line.L16"              ,   1,     -1273.4,      -414.3,         0.0,         0.0,         0.0,         0.0
"Line.L16"              ,   2,      1286.5,       431.6
"Line.L17"              ,   1,     -1348.0,      -452.1,         0.0,         0.0,         0.0,         0.0
"Line.L17"              ,   2,      1356.2,       458.3
"Line.L18"              ,   1,        80.2,       109.6,         0.0,         0.0,         0.0,         0.0
"Line.L18"              ,   2,       -80.2,      -109.7
"Line.L19"              ,   1,        -9.8,        69.7,         0.0,         0.0,         0.0,         0.0
"Line.L19"              ,   2,         9.8,       -69.9
"Line.L20"              ,   1,       -99.8,        29.9,         0.0,         0.0,         0.0,         0.0
"Line.L20"              ,   2,        99.8,       -30.0
"Line.L21"              ,   1,      -189.8,       -10.0,         0.0,         0.0,         0.0,         0.0
"Line.L21"              ,   2,       190.0,        10.0
"Line.L22"              ,   1,       694.8,       413.1,         0.0,         0.0,         0.0,         0.0
"Line.L22"              ,   2,      -693.0,      -412.1
"Line.L23"              ,   1,       603.0,       362.1,         0.0,         0.0,         0.0,         0.0
"Line.L23"              ,   2,      -600.3,      -360.1
"Line.L24"              ,   1,       180.3,       160.1,         0.0,         0.0,         0.0,         0.0
"Line.L24"              ,   2,      -180.0,      -160.0
"Line.L25"              ,   1,       947.5,       969.8,         0.0,         0.0,         0.0,         0.0
"Line.L25"              ,   2,      -945.2,      -968.8
"Line.L26"              ,   1,       885.2,       943.8,         0.0,         0.0,         0.0,         0.0
"Line.L26"              ,   2,      -882.2,      -942.5
"Line.L27"              ,   1,       822.2,       917.5,         0.0,         0.0,         0.0,         0.0
"Line.L27"              ,   2,      -812.1,      -908.7
"Line.L28"              ,   1,       752.1,       888.7,         0.0,         0.0,         0.0,         0.0
"Line.L28"              ,   2,      -745.1,      -882.8
"Line.L29"              ,   1,       625.1,       812.8,         0.0,         0.0,         0.0,         0.0
"Line.L29"              ,   2,      -621.6,      -811.2
"Line.L30"              ,   1,       421.6,       211.2,         0.0,         0.0,         0.0,         0.0
"Line.L30"              ,   2,      -420.2,      -209.9
"Line.L31"              ,   1,       270.2,       139.9,         0.0,         0.0,         0.0,         0.0
"Line.L31"              ,   2,      -270.0,      -139.9
"Line.L32"              ,   1,        60.0,        39.9,         0.0,         0.0,         0.0,         0.0
"Line.L32"              ,   2,       -60.0,       -40.0
"Load.L2"               ,   1,       100.0,        60.0
"Load.L3"               ,   1,        90.0,        40.0
"Load.L4"               ,   1,       120.0,        80.0
"Load.L5"               ,   1,        60.0,        30.0
"Load.L6"               ,   1,        60.0,        20.0
"Load.L7"               ,   1,       200.0,       100.0
"Load.L8"               ,   1,       200.0,       100.0
"Load.L9"               ,   1,        60.0,        20.0
"Load.L10"              ,   1,        60.0,        20.0
"Load.L11"              ,   1,        45.0,        30.0
"Load.L12"              ,   1,        60.0,        35.0
"Load.L13"              ,   1,        60.0,        35.0
"Load.L14"              ,   1,       120.0,        80.0
"Load.L15"              ,   1,        60.0,        10.0
"Load.L16"              ,   1,        60.0,        20.0
"Load.L17"              ,   1,        61.6,        20.5
"Load.L18"              ,   1,        93.6,        41.6
"Load.L19"              ,   1,        90.0,        40.0
"Load.L20"              ,   1,        90.0,        40.0
"Load.L21"              ,   1,        90.0,        40.0
"Load.L22"              ,   1,        90.0,        40.0
"Load.L23"              ,   1,        90.0,        50.0
"Load.L24"              ,   1,       420.0,       200.0
"Load.L25"              ,   1,       420.0,       200.0
"Load.L26"              ,   1,        60.0,        25.0
"Load.L27"              ,   1,        60.0,        25.0
"Load.L28"              ,   1,        60.0,        20.0
"Load.L29"              ,   1,       120.0,        70.0
"Load.L30"              ,   1,       200.0,       600.0
"Load.L31"              ,   1,       150.0,        70.0
"Load.L32"              ,   1,       210.0,       100.0
"Load.L33"              ,   1,        60.0,        40.0
"Generator.PV_INDUSTRIAL_PARK",   1,     -1449.9,      -499.9
"Generator.BIOMASS_PLANT",   1,      -310.0,       -60.0
"Generator.MINI_HYDRO"  ,   1,      -280.0,       -50.0
"Generator.PV_ROOF_TOP" ,   1,      -240.0,       -40.0
